<?xml version="1.0" encoding="UTF-8"?>
<!-- generated on 2020-06-10 17:17:54.230293 by randomTrips.py v1_6_0+0400-c5b49db20f
  options: -n ../../../selfdriving/sumo/netedit_networks/highway/highway.net.xml -e 20
-->
<routes xmlns:xsi="http://www.w3.org/2001/XMLSchema-instance" xsi:noNamespaceSchemaLocation="http://sumo.dlr.de/xsd/routes_file.xsd">
    <trip id="0" depart="0.00" from="gneE15" to="gneE10"/>
    <trip id="1" depart="1.00" from="gneE12" to="gneE11"/>
    <trip id="2" depart="2.00" from="gneE15" to="gneE15"/>
    <trip id="3" depart="3.00" from="gneE9" to="gneE10"/>
    <trip id="4" depart="4.00" from="gneE13" to="gneE10"/>
    <trip id="5" depart="5.00" from="gneE11" to="gneE14"/>
    <trip id="6" depart="6.00" from="gneE10" to="gneE11"/>
    <trip id="7" depart="7.00" from="gneE15" to="gneE14"/>
    <trip id="8" depart="8.00" from="gneE11" to="gneE14"/>
    <trip id="9" depart="9.00" from="gneE8" to="gneE10"/>
    <trip id="10" depart="10.00" from="gneE8" to="gneE15"/>
    <trip id="11" depart="11.00" from="gneE12" to="gneE11"/>
    <trip id="12" depart="12.00" from="gneE9" to="gneE12"/>
    <trip id="13" depart="13.00" from="gneE10" to="gneE10"/>
    <trip id="14" depart="14.00" from="gneE8" to="gneE14"/>
    <trip id="15" depart="15.00" from="gneE8" to="gneE15"/>
    <trip id="16" depart="16.00" from="gneE14" to="gneE9"/>
    <trip id="17" depart="17.00" from="gneE13" to="gneE14"/>
    <trip id="18" depart="18.00" from="gneE8" to="gneE14"/>
    <trip id="19" depart="19.00" from="gneE8" to="gneE14"/>
</routes>
